LTspice 24.0.12 for Windows
Circuit: * D:\IYTE\Third Year\Electronic 2\Homeworks\HomeworkProblem2.asc
Start Time: Sun Dec 28 18:58:15 2025
solver = Normal
Maximum thread count: 8
tnom = 27
temp = 27
method = modified trap
Direct Newton iteration for .op point succeeded.
Total elapsed time: 0.221 seconds.

